 228

 U                 17.95501500    3.29567500    0.00000000
 U                 22.28255500    0.06844300    7.22575500
 U                 17.91196100   -2.57460300    0.00000000
 U                 17.87342400    0.35695200    2.95299600
 P                 19.14150700   -1.29087300    5.98532400
 P                 19.19829100    1.66892300    6.12484300
 P                 18.95399600   -5.71845200   -1.48718700
 O                 23.86006900   -1.30500500    8.27984000
 O                 16.84266900   -0.95925800    1.32182200
 O                 16.45452400    4.33066900    0.00000000
 O                 22.92175800   -2.20293800    7.57085300
 O                 19.45268000    0.38738800    2.05884400
 O                 21.31744200    0.11255700    8.75074600
 O                 16.87068200    1.69693600    1.30101400
 O                 16.34474300    0.32051000    3.87413200
 O                 23.20920700    0.03129400    5.67014500
 O                 19.45520300   -1.64292900    0.00000000
 O                 17.49555000    2.63070500    2.26932800
 O                 19.46782200    2.33442200    0.00000000
 O                 17.51574000   -1.90488900    2.24720700
 O                 16.39647900   -3.55589300    0.00000000
 C                 18.16811600   -6.34962900    0.00000000
 C                 18.47600800    0.15899300    6.80075700
 P                 18.95399600   -5.71845200    1.48718700
 U                 21.94132500   -7.28198500    0.00000000
 U                 25.16855700   -2.95444500    7.22575500
 U                 27.81160300   -7.32503900    0.00000000
 U                 24.88004800   -7.36357600    2.95299600
 P                 26.52787300   -6.09549300    5.98532400
 P                 23.56807700   -6.03870900    6.12484300
 P                 30.95545200   -6.28300400   -1.48718700
 O                 26.54200500   -1.37693100    8.27984000
 O                 26.19625800   -8.39433100    1.32182200
 O                 20.90633100   -8.78247600    0.00000000
 O                 27.43993800   -2.31524200    7.57085300
 O                 24.84961200   -5.78432000    2.05884400
 O                 25.12444300   -3.91955800    8.75074600
 O                 23.54006400   -8.36631800    1.30101400
 O                 24.91649000   -8.89225700    3.87413200
 O                 25.20570600   -2.02779300    5.67014500
 O                 26.87992900   -5.78179700    0.00000000
 O                 22.60629500   -7.74145000    2.26932800
 O                 22.90257700   -5.76917800    0.00000000
 O                 27.14188900   -7.72126000    2.24720700
 O                 28.79289300   -8.84052100    0.00000000
 C                 31.58662900   -7.06888400    0.00000000
 C                 25.07800700   -6.76099200    6.80075700
 P                 30.95545200   -6.28300400    1.48718700
 U                 28.53267500    7.28198500    0.00000000
 U                 25.30544300    2.95444500    7.22575500
 U                 22.66239700    7.32503900    0.00000000
 U                 25.59395200    7.36357600    2.95299600
 P                 23.94612700    6.09549300    5.98532400
 P                 26.90592300    6.03870900    6.12484300
 P                 19.51854800    6.28300400   -1.48718700
 O                 23.93199500    1.37693100    8.27984000
 O                 24.27774200    8.39433100    1.32182200
 O                 29.56766900    8.78247600    0.00000000
 O                 23.03406200    2.31524200    7.57085300
 O                 25.62438800    5.78432000    2.05884400
 O                 25.34955700    3.91955800    8.75074600
 O                 26.93393600    8.36631800    1.30101400
 O                 25.55751000    8.89225700    3.87413200
 O                 25.26829400    2.02779300    5.67014500
 O                 23.59407100    5.78179700    0.00000000
 O                 27.86770500    7.74145000    2.26932800
 O                 27.57142300    5.76917800    0.00000000
 O                 23.33211100    7.72126000    2.24720700
 O                 21.68110700    8.84052100    0.00000000
 C                 18.88737100    7.06888400    0.00000000
 C                 25.39599300    6.76099200    6.80075700
 P                 19.51854800    6.28300400    1.48718700
 U                 22.28255500    0.06844300   -7.22575500
 U                 17.87342400    0.35695200   -2.95299600
 P                 19.14150700   -1.29087300   -5.98532400
 P                 19.19829100    1.66892300   -6.12484300
 O                 23.86006900   -1.30500500   -8.27984000
 O                 16.84266900   -0.95925800   -1.32182200
 O                 22.92175800   -2.20293800   -7.57085300
 O                 19.45268000    0.38738800   -2.05884400
 O                 21.31744200    0.11255700   -8.75074600
 O                 16.87068200    1.69693600   -1.30101400
 O                 16.34474300    0.32051000   -3.87413200
 O                 23.20920700    0.03129400   -5.67014500
 O                 17.49555000    2.63070500   -2.26932800
 O                 17.51574000   -1.90488900   -2.24720700
 C                 18.47600800    0.15899300   -6.80075700
 U                 25.30544300    2.95444500   -7.22575500
 U                 25.59395200    7.36357600   -2.95299600
 P                 23.94612700    6.09549300   -5.98532400
 P                 26.90592300    6.03870900   -6.12484300
 O                 23.93199500    1.37693100   -8.27984000
 O                 24.27774200    8.39433100   -1.32182200
 O                 23.03406200    2.31524200   -7.57085300
 O                 25.62438800    5.78432000   -2.05884400
 O                 25.34955700    3.91955800   -8.75074600
 O                 26.93393600    8.36631800   -1.30101400
 O                 25.55751000    8.89225700   -3.87413200
 O                 25.26829400    2.02779300   -5.67014500
 O                 27.86770500    7.74145000   -2.26932800
 O                 23.33211100    7.72126000   -2.24720700
 C                 25.39599300    6.76099200   -6.80075700
 U                 25.16855700   -2.95444500   -7.22575500
 U                 24.88004800   -7.36357600   -2.95299600
 P                 26.52787300   -6.09549300   -5.98532400
 P                 23.56807700   -6.03870900   -6.12484300
 O                 26.54200500   -1.37693100   -8.27984000
 O                 26.19625800   -8.39433100   -1.32182200
 O                 27.43993800   -2.31524200   -7.57085300
 O                 24.84961200   -5.78432000   -2.05884400
 O                 25.12444300   -3.91955800   -8.75074600
 O                 23.54006400   -8.36631800   -1.30101400
 O                 24.91649000   -8.89225700   -3.87413200
 O                 25.20570600   -2.02779300   -5.67014500
 O                 22.60629500   -7.74145000   -2.26932800
 O                 27.14188900   -7.72126000   -2.24720700
 C                 25.07800700   -6.76099200   -6.80075700
 U                 32.51898500   -3.29567500    0.00000000
 U                 28.19144500   -0.06844300    7.22575500
 U                 32.56203900    2.57460300    0.00000000
 U                 32.60057600   -0.35695200    2.95299600
 P                 31.33249300    1.29087300    5.98532400
 P                 31.27570900   -1.66892300    6.12484300
 P                 31.52000400    5.71845200   -1.48718700
 O                 26.61393100    1.30500500    8.27984000
 O                 33.63133100    0.95925800    1.32182200
 O                 34.01947600   -4.33066900    0.00000000
 O                 27.55224200    2.20293800    7.57085300
 O                 31.02132000   -0.38738800    2.05884400
 O                 29.15655800   -0.11255700    8.75074600
 O                 33.60331800   -1.69693600    1.30101400
 O                 34.12925700   -0.32051000    3.87413200
 O                 27.26479300   -0.03129400    5.67014500
 O                 31.01879700    1.64292900    0.00000000
 O                 32.97845000   -2.63070500    2.26932800
 O                 31.00617800   -2.33442200    0.00000000
 O                 32.95826000    1.90488900    2.24720700
 O                 34.07752100    3.55589300    0.00000000
 C                 32.30588400    6.34962900    0.00000000
 C                 31.99799200   -0.15899300    6.80075700
 P                 31.52000400    5.71845200    1.48718700
 U                 28.19144500   -0.06844300   -7.22575500
 U                 32.60057600   -0.35695200   -2.95299600
 P                 31.33249300    1.29087300   -5.98532400
 P                 31.27570900   -1.66892300   -6.12484300
 O                 26.61393100    1.30500500   -8.27984000
 O                 33.63133100    0.95925800   -1.32182200
 O                 27.55224200    2.20293800   -7.57085300
 O                 31.02132000   -0.38738800   -2.05884400
 O                 29.15655800   -0.11255700   -8.75074600
 O                 33.60331800   -1.69693600   -1.30101400
 O                 34.12925700   -0.32051000   -3.87413200
 O                 27.26479300   -0.03129400   -5.67014500
 O                 32.97845000   -2.63070500   -2.26932800
 O                 32.95826000    1.90488900   -2.24720700
 C                 31.99799200   -0.15899300   -6.80075700
 N                 18.99637853    4.83466981    1.45159040
 N                 21.05500857    6.31573170    1.38810215
 N                 19.02675060    7.01617274    2.74901065
 N                 18.99637853    4.83466981   -1.45159040
 N                 21.05500857    6.31573170   -1.38810215
 N                 19.02675060    7.01617274   -2.74901065
 N                 18.73589666    1.80483124   -4.66220141
 N                 18.72122008    2.83968291   -7.00423174
 N                 20.72970298    1.51651653   -6.18096435
 N                 20.65401020   -1.33725439   -6.27130099
 N                 18.44405917   -2.53742951   -6.56087886
 N                 18.88651148   -1.11594589   -4.47668959
 N                 26.57425439   -4.58298980   -6.27130099
 N                 27.77442951   -6.79294083   -6.56087886
 N                 22.39731709   -6.51577992   -7.00423174
 N                 23.72048347   -4.50729702   -6.18096435
 N                 23.43216876   -6.50110334   -4.66220141
 N                 26.35294589   -6.35048852   -4.47668959
 N                 29.41899143   -6.31573170   -1.38810215
 N                 31.44724940   -7.01617274   -2.74901065
 N                 31.47762147   -4.83466981   -1.45159040
 N                 31.44724940   -7.01617274    2.74901065
 N                 31.47762147   -4.83466981    1.45159040
 N                 29.41899143   -6.31573170    1.38810215
 N                 31.73810334   -1.80483124    4.66220141
 N                 31.58748852    1.11594589    4.47668959
 N                 29.74429702   -1.51651653    6.18096435
 N                 29.81998980    1.33725439    6.27130099
 N                 32.02994083    2.53742951    6.56087886
 N                 31.75277992   -2.83968291    7.00423174
 N                 28.07668291    6.51577992    7.00423174
 N                 27.04183124    6.50110334    4.66220141
 N                 26.75351653    4.50729702    6.18096435
 N                 27.77442951   -6.79294083    6.56087886
 N                 26.35294589   -6.35048852    4.47668959
 N                 26.57425439   -4.58298980    6.27130099
 N                 23.72048347   -4.50729702    6.18096435
 N                 23.43216876   -6.50110334    4.66220141
 N                 22.39731709   -6.51577992    7.00423174
 N                 20.65401020   -1.33725439    6.27130099
 N                 18.44405917   -2.53742951    6.56087886
 N                 18.88651148   -1.11594589    4.47668959
 N                 20.72970298    1.51651653    6.18096435
 N                 18.73589666    1.80483124    4.66220141
 N                 18.72122008    2.83968291    7.00423174
 N                 18.22082726   -6.21024940    2.74901065
 N                 18.92126830   -4.18199143    1.38810215
 N                 20.40233019   -6.24062147    1.45159040
 N                 20.40233019   -6.24062147   -1.45159040
 N                 18.22082726   -6.21024940   -2.74901065
 N                 18.92126830   -4.18199143   -1.38810215
 N                 31.55273170    4.18199143   -1.38810215
 N                 32.25317274    6.21024940   -2.74901065
 N                 30.07166981    6.24062147   -1.45159040
 N                 30.07166981    6.24062147    1.45159040
 N                 32.25317274    6.21024940    2.74901065
 N                 31.55273170    4.18199143    1.38810215
 N                 24.12105411    6.35048852    4.47668959
 N                 22.69957049    6.79294083    6.56087886
 N                 23.89974561    4.58298980    6.27130099
 N                 31.58748852    1.11594589   -4.47668959
 N                 32.02994083    2.53742951   -6.56087886
 N                 29.81998980    1.33725439   -6.27130099
 N                 31.75277992   -2.83968291   -7.00423174
 N                 29.74429702   -1.51651653   -6.18096435
 N                 31.73810334   -1.80483124   -4.66220141
 N                 28.07668291    6.51577992   -7.00423174
 N                 26.75351653    4.50729702   -6.18096435
 N                 27.04183124    6.50110334   -4.66220141
 N                 23.89974561    4.58298980   -6.27130099
 N                 24.12105411    6.35048852   -4.47668959
 N                 22.69957049    6.79294083   -6.56087886
