360

U   10.116170000    0.000000000    1.979060000
U    8.812960000    3.475100000    4.123670000
U    7.577180000    6.642580000    2.146130000
O    7.307820000    2.674610000    3.508060000
O    7.614680000    5.538640000    4.292260000
O   10.202160000   -1.386550000    0.000000000
O   10.187010000    2.246520000    2.704920000
O    6.171300000    5.675020000    1.666900000
O    8.914100000    4.712770000    2.064680000
O    8.489800000    6.550140000    0.000000000
O   10.005160000    1.435800000    3.909630000
O    7.951850000    3.629290000    6.345570000
O    8.614820000    2.303350000    6.205400000
O   10.342330000    4.292260000    4.731710000
O    8.311750000    0.000000000    1.856320000
O   11.880420000    0.000000000    2.007850000
O    7.557860000    7.667720000    0.000000000
O    9.046700000    7.607110000    2.655670000
U   10.116170000   -0.000000000   -1.979060000
U    8.812960000   -3.475100000   -4.123670000
U    7.577180000   -6.642580000   -2.146130000
O    7.307820000   -2.674610000   -3.508060000
O    7.614680000   -5.538640000   -4.292260000
O   10.202160000    1.386550000    0.000000000
O   10.187010000   -2.246520000   -2.704920000
O    6.171300000   -5.675020000   -1.666900000
O    8.914100000   -4.712770000   -2.064680000
O    8.489800000   -6.550140000    0.000000000
O   10.005160000   -1.435800000   -3.909630000
O    7.951850000   -3.629290000   -6.345570000
O    8.614820000   -2.303350000   -6.205400000
O   10.342330000   -4.292260000   -4.731710000
O    8.311750000   -0.000000000   -1.856320000
O   11.880420000   -0.000000000   -2.007850000
O    7.557860000   -7.667720000    0.000000000
O    9.046700000   -7.607110000   -2.655670000
U    1.979060000   10.116170000    0.000000000
U    4.123670000    8.812960000    3.475100000
U    2.146130000    7.577180000    6.642580000
O    3.508060000    7.307820000    2.674610000
O    4.292260000    7.614680000    5.538640000
O    0.000000000   10.202160000   -1.386550000
O    2.704920000   10.187010000    2.246520000
O    1.666900000    6.171300000    5.675020000
O    2.064680000    8.914100000    4.712770000
O    0.000000000    8.489800000    6.550140000
O    3.909630000   10.005160000    1.435800000
O    6.345570000    7.951850000    3.629290000
O    6.205400000    8.614820000    2.303350000
O    4.731710000   10.342330000    4.292260000
O    1.856320000    8.311750000    0.000000000
O    2.007850000   11.880420000    0.000000000
O    0.000000000    7.557860000    7.667720000
O    2.655670000    9.046700000    7.607110000
U    1.979060000  -10.116170000    0.000000000
U    4.123670000   -8.812960000   -3.475100000
U    2.146130000   -7.577180000   -6.642580000
O    3.508060000   -7.307820000   -2.674610000
O    4.292260000   -7.614680000   -5.538640000
O   -0.000000000  -10.202160000    1.386550000
O    2.704920000  -10.187010000   -2.246520000
O    1.666900000   -6.171300000   -5.675020000
O    2.064680000   -8.914100000   -4.712770000
O   -0.000000000   -8.489800000   -6.550140000
O    3.909630000  -10.005160000   -1.435800000
O    6.345570000   -7.951850000   -3.629290000
O    6.205400000   -8.614820000   -2.303350000
O    4.731710000  -10.342330000   -4.292260000
O    1.856320000   -8.311750000    0.000000000
O    2.007850000  -11.880420000    0.000000000
O   -0.000000000   -7.557860000   -7.667720000
O    2.655670000   -9.046700000   -7.607110000
U    0.000000000    1.979060000   10.116170000
U    3.475100000    4.123670000    8.812960000
U    6.642580000    2.146130000    7.577180000
O    2.674610000    3.508060000    7.307820000
O    5.538640000    4.292260000    7.614680000
O   -1.386550000    0.000000000   10.202160000
O    2.246520000    2.704920000   10.187010000
O    5.675020000    1.666900000    6.171300000
O    4.712770000    2.064680000    8.914100000
O    6.550140000    0.000000000    8.489800000
O    1.435800000    3.909630000   10.005160000
O    3.629290000    6.345570000    7.951850000
O    2.303350000    6.205400000    8.614820000
O    4.292260000    4.731710000   10.342330000
O    0.000000000    1.856320000    8.311750000
O    0.000000000    2.007850000   11.880420000
O    7.667720000    0.000000000    7.557860000
O    7.607110000    2.655670000    9.046700000
U    8.812960000    3.475100000   -4.123670000
U    7.577180000    6.642580000   -2.146130000
O    7.307820000    2.674610000   -3.508060000
O    7.614680000    5.538640000   -4.292260000
O   10.187010000    2.246520000   -2.704920000
O    6.171300000    5.675020000   -1.666900000
O    8.914100000    4.712770000   -2.064680000
O   10.005160000    1.435800000   -3.909630000
O    7.951850000    3.629290000   -6.345570000
O    8.614820000    2.303350000   -6.205400000
O   10.342330000    4.292260000   -4.731710000
O    9.046700000    7.607110000   -2.655670000
U    8.812960000   -3.475100000    4.123670000
U    7.577180000   -6.642580000    2.146130000
O    7.307820000   -2.674610000    3.508060000
O    7.614680000   -5.538640000    4.292260000
O   10.187010000   -2.246520000    2.704920000
O    6.171300000   -5.675020000    1.666900000
O    8.914100000   -4.712770000    2.064680000
O   10.005160000   -1.435800000    3.909630000
O    7.951850000   -3.629290000    6.345570000
O    8.614820000   -2.303350000    6.205400000
O   10.342330000   -4.292260000    4.731710000
O    9.046700000   -7.607110000    2.655670000
U    4.123670000    8.812960000   -3.475100000
U    2.146130000    7.577180000   -6.642580000
O    3.508060000    7.307820000   -2.674610000
O    4.292260000    7.614680000   -5.538640000
O    0.000000000   10.202160000    1.386550000
O    2.704920000   10.187010000   -2.246520000
O    1.666900000    6.171300000   -5.675020000
O    2.064680000    8.914100000   -4.712770000
O    0.000000000    8.489800000   -6.550140000
O    3.909630000   10.005160000   -1.435800000
O    6.345570000    7.951850000   -3.629290000
O    6.205400000    8.614820000   -2.303350000
O    4.731710000   10.342330000   -4.292260000
O   -0.000000000    7.557860000   -7.667720000
O    2.655670000    9.046700000   -7.607110000
U    4.123670000   -8.812960000    3.475100000
U    2.146130000   -7.577180000    6.642580000
O    3.508060000   -7.307820000    2.674610000
O    4.292260000   -7.614680000    5.538640000
O   -0.000000000  -10.202160000   -1.386550000
O    2.704920000  -10.187010000    2.246520000
O    1.666900000   -6.171300000    5.675020000
O    2.064680000   -8.914100000    4.712770000
O   -0.000000000   -8.489800000    6.550140000
O    3.909630000  -10.005160000    1.435800000
O    6.345570000   -7.951850000    3.629290000
O    6.205400000   -8.614820000    2.303350000
O    4.731710000  -10.342330000    4.292260000
O    0.000000000   -7.557860000    7.667720000
O    2.655670000   -9.046700000    7.607110000
U    0.000000000   -1.979060000   10.116170000
U    3.475100000   -4.123670000    8.812960000
U    6.642580000   -2.146130000    7.577180000
O    2.674610000   -3.508060000    7.307820000
O    5.538640000   -4.292260000    7.614680000
O    2.246520000   -2.704920000   10.187010000
O    5.675020000   -1.666900000    6.171300000
O    4.712770000   -2.064680000    8.914100000
O    1.435800000   -3.909630000   10.005160000
O    3.629290000   -6.345570000    7.951850000
O    2.303350000   -6.205400000    8.614820000
O    4.292260000   -4.731710000   10.342330000
O    0.000000000   -1.856320000    8.311750000
O    0.000000000   -2.007850000   11.880420000
O    7.607110000   -2.655670000    9.046700000
U   -1.979060000  -10.116170000    0.000000000
U   -4.123670000   -8.812960000    3.475100000
U   -2.146130000   -7.577180000    6.642580000
O   -3.508060000   -7.307820000    2.674610000
O   -4.292260000   -7.614680000    5.538640000
O   -2.704920000  -10.187010000    2.246520000
O   -1.666900000   -6.171300000    5.675020000
O   -2.064680000   -8.914100000    4.712770000
O   -3.909630000  -10.005160000    1.435800000
O   -6.345570000   -7.951850000    3.629290000
O   -6.205400000   -8.614820000    2.303350000
O   -4.731710000  -10.342330000    4.292260000
O   -1.856320000   -8.311750000    0.000000000
O   -2.007850000  -11.880420000    0.000000000
O   -2.655670000   -9.046700000    7.607110000
U   -1.979060000   10.116170000    0.000000000
U   -4.123670000    8.812960000   -3.475100000
U   -2.146130000    7.577180000   -6.642580000
O   -3.508060000    7.307820000   -2.674610000
O   -4.292260000    7.614680000   -5.538640000
O   -2.704920000   10.187010000   -2.246520000
O   -1.666900000    6.171300000   -5.675020000
O   -2.064680000    8.914100000   -4.712770000
O   -3.909630000   10.005160000   -1.435800000
O   -6.345570000    7.951850000   -3.629290000
O   -6.205400000    8.614820000   -2.303350000
O   -4.731710000   10.342330000   -4.292260000
O   -1.856320000    8.311750000    0.000000000
O   -2.007850000   11.880420000    0.000000000
O   -2.655670000    9.046700000   -7.607110000
U   -0.000000000   -1.979060000  -10.116170000
U    3.475100000   -4.123670000   -8.812960000
U    6.642580000   -2.146130000   -7.577180000
O    2.674610000   -3.508060000   -7.307820000
O    5.538640000   -4.292260000   -7.614680000
O   -1.386550000   -0.000000000  -10.202160000
O    2.246520000   -2.704920000  -10.187010000
O    5.675020000   -1.666900000   -6.171300000
O    4.712770000   -2.064680000   -8.914100000
O    6.550140000   -0.000000000   -8.489800000
O    1.435800000   -3.909630000  -10.005160000
O    3.629290000   -6.345570000   -7.951850000
O    2.303350000   -6.205400000   -8.614820000
O    4.292260000   -4.731710000  -10.342330000
O   -0.000000000   -1.856320000   -8.311750000
O   -0.000000000   -2.007850000  -11.880420000
O    7.667720000   -0.000000000   -7.557860000
O    7.607110000   -2.655670000   -9.046700000
U   -0.000000000    1.979060000  -10.116170000
U   -3.475100000    4.123670000   -8.812960000
U   -6.642580000    2.146130000   -7.577180000
O   -2.674610000    3.508060000   -7.307820000
O   -5.538640000    4.292260000   -7.614680000
O    1.386550000   -0.000000000  -10.202160000
O   -2.246520000    2.704920000  -10.187010000
O   -5.675020000    1.666900000   -6.171300000
O   -4.712770000    2.064680000   -8.914100000
O   -6.550140000   -0.000000000   -8.489800000
O   -1.435800000    3.909630000  -10.005160000
O   -3.629290000    6.345570000   -7.951850000
O   -2.303350000    6.205400000   -8.614820000
O   -4.292260000    4.731710000  -10.342330000
O   -0.000000000    1.856320000   -8.311750000
O   -0.000000000    2.007850000  -11.880420000
O   -7.667720000   -0.000000000   -7.557860000
O   -7.607110000    2.655670000   -9.046700000
U   -3.475100000   -4.123670000    8.812960000
U   -6.642580000   -2.146130000    7.577180000
O   -2.674610000   -3.508060000    7.307820000
O   -5.538640000   -4.292260000    7.614680000
O    1.386550000    0.000000000   10.202160000
O   -2.246520000   -2.704920000   10.187010000
O   -5.675020000   -1.666900000    6.171300000
O   -4.712770000   -2.064680000    8.914100000
O   -6.550140000    0.000000000    8.489800000
O   -1.435800000   -3.909630000   10.005160000
O   -3.629290000   -6.345570000    7.951850000
O   -2.303350000   -6.205400000    8.614820000
O   -4.292260000   -4.731710000   10.342330000
O   -7.667720000    0.000000000    7.557860000
O   -7.607110000   -2.655670000    9.046700000
U  -10.116170000   -0.000000000   -1.979060000
U   -8.812960000   -3.475100000   -4.123670000
U   -7.577180000   -6.642580000   -2.146130000
O   -7.307820000   -2.674610000   -3.508060000
O   -7.614680000   -5.538640000   -4.292260000
O  -10.202160000    1.386550000    0.000000000
O  -10.187010000   -2.246520000   -2.704920000
O   -6.171300000   -5.675020000   -1.666900000
O   -8.914100000   -4.712770000   -2.064680000
O   -8.489800000   -6.550140000    0.000000000
O  -10.005160000   -1.435800000   -3.909630000
O   -7.951850000   -3.629290000   -6.345570000
O   -8.614820000   -2.303350000   -6.205400000
O  -10.342330000   -4.292260000   -4.731710000
O   -8.311750000   -0.000000000   -1.856320000
O  -11.880420000   -0.000000000   -2.007850000
O   -7.557860000   -7.667720000    0.000000000
O   -9.046700000   -7.607110000   -2.655670000
U  -10.116170000    0.000000000    1.979060000
U   -8.812960000    3.475100000    4.123670000
U   -7.577180000    6.642580000    2.146130000
O   -7.307820000    2.674610000    3.508060000
O   -7.614680000    5.538640000    4.292260000
O  -10.202160000   -1.386550000    0.000000000
O  -10.187010000    2.246520000    2.704920000
O   -6.171300000    5.675020000    1.666900000
O   -8.914100000    4.712770000    2.064680000
O   -8.489800000    6.550140000    0.000000000
O  -10.005160000    1.435800000    3.909630000
O   -7.951850000    3.629290000    6.345570000
O   -8.614820000    2.303350000    6.205400000
O  -10.342330000    4.292260000    4.731710000
O   -8.311750000    0.000000000    1.856320000
O  -11.880420000    0.000000000    2.007850000
O   -7.557860000    7.667720000    0.000000000
O   -9.046700000    7.607110000    2.655670000
U   -4.123670000   -8.812960000   -3.475100000
U   -2.146130000   -7.577180000   -6.642580000
O   -3.508060000   -7.307820000   -2.674610000
O   -4.292260000   -7.614680000   -5.538640000
O   -2.704920000  -10.187010000   -2.246520000
O   -1.666900000   -6.171300000   -5.675020000
O   -2.064680000   -8.914100000   -4.712770000
O   -3.909630000  -10.005160000   -1.435800000
O   -6.345570000   -7.951850000   -3.629290000
O   -6.205400000   -8.614820000   -2.303350000
O   -4.731710000  -10.342330000   -4.292260000
O   -2.655670000   -9.046700000   -7.607110000
U   -4.123670000    8.812960000    3.475100000
U   -2.146130000    7.577180000    6.642580000
O   -3.508060000    7.307820000    2.674610000
O   -4.292260000    7.614680000    5.538640000
O   -2.704920000   10.187010000    2.246520000
O   -1.666900000    6.171300000    5.675020000
O   -2.064680000    8.914100000    4.712770000
O   -3.909630000   10.005160000    1.435800000
O   -6.345570000    7.951850000    3.629290000
O   -6.205400000    8.614820000    2.303350000
O   -4.731710000   10.342330000    4.292260000
O   -2.655670000    9.046700000    7.607110000
U   -3.475100000   -4.123670000   -8.812960000
U   -6.642580000   -2.146130000   -7.577180000
O   -2.674610000   -3.508060000   -7.307820000
O   -5.538640000   -4.292260000   -7.614680000
O   -2.246520000   -2.704920000  -10.187010000
O   -5.675020000   -1.666900000   -6.171300000
O   -4.712770000   -2.064680000   -8.914100000
O   -1.435800000   -3.909630000  -10.005160000
O   -3.629290000   -6.345570000   -7.951850000
O   -2.303350000   -6.205400000   -8.614820000
O   -4.292260000   -4.731710000  -10.342330000
O   -7.607110000   -2.655670000   -9.046700000
U   -3.475100000    4.123670000    8.812960000
U   -6.642580000    2.146130000    7.577180000
O   -2.674610000    3.508060000    7.307820000
O   -5.538640000    4.292260000    7.614680000
O   -2.246520000    2.704920000   10.187010000
O   -5.675020000    1.666900000    6.171300000
O   -4.712770000    2.064680000    8.914100000
O   -1.435800000    3.909630000   10.005160000
O   -3.629290000    6.345570000    7.951850000
O   -2.303350000    6.205400000    8.614820000
O   -4.292260000    4.731710000   10.342330000
O   -7.607110000    2.655670000    9.046700000
U    3.475100000    4.123670000   -8.812960000
U    6.642580000    2.146130000   -7.577180000
O    2.674610000    3.508060000   -7.307820000
O    5.538640000    4.292260000   -7.614680000
O    2.246520000    2.704920000  -10.187010000
O    5.675020000    1.666900000   -6.171300000
O    4.712770000    2.064680000   -8.914100000
O    1.435800000    3.909630000  -10.005160000
O    3.629290000    6.345570000   -7.951850000
O    2.303350000    6.205400000   -8.614820000
O    4.292260000    4.731710000  -10.342330000
O    7.607110000    2.655670000   -9.046700000
U   -8.812960000   -3.475100000    4.123670000
U   -7.577180000   -6.642580000    2.146130000
O   -7.307820000   -2.674610000    3.508060000
O   -7.614680000   -5.538640000    4.292260000
O  -10.187010000   -2.246520000    2.704920000
O   -6.171300000   -5.675020000    1.666900000
O   -8.914100000   -4.712770000    2.064680000
O  -10.005160000   -1.435800000    3.909630000
O   -7.951850000   -3.629290000    6.345570000
O   -8.614820000   -2.303350000    6.205400000
O  -10.342330000   -4.292260000    4.731710000
O   -9.046700000   -7.607110000    2.655670000
U   -8.812960000    3.475100000   -4.123670000
U   -7.577180000    6.642580000   -2.146130000
O   -7.307820000    2.674610000   -3.508060000
O   -7.614680000    5.538640000   -4.292260000
O  -10.187010000    2.246520000   -2.704920000
O   -6.171300000    5.675020000   -1.666900000
O   -8.914100000    4.712770000   -2.064680000
O  -10.005160000    1.435800000   -3.909630000
O   -7.951850000    3.629290000   -6.345570000
O   -8.614820000    2.303350000   -6.205400000
O  -10.342330000    4.292260000   -4.731710000
O   -9.046700000    7.607110000   -2.655670000

